/*--------------------------------*- C++ -*----------------------------------*\
| =========                 |                                                 |
| \\      /  F ield         | OpenFOAM: The Open Source CFD Toolbox           |
|  \\    /   O peration     | Version:  2.2.2                                 |
|   \\  /    A nd           | Web:      www.OpenFOAM.org                      |
|    \\/     M anipulation  |                                                 |
\*---------------------------------------------------------------------------*/
FoamFile
{
    version     2.0;
    format      ascii;
    class       dictionary;
    object      fvSchemes;
}
// * * * * * * * * * * * * * * * * * * * * * * * * * * * * * * * * * * * * * //

ddtSchemes
{
    default steadyState;
}

gradSchemes
{
    default         cellMDLimited Gauss linear 0;
    grad(p)         Gauss linear 0.333;
    grad(U)         cellMDLimited Gauss linear 0.333;
}

divSchemes
{
    default         none;
    div(phi,U)      Gauss linearUpwind grad(U);
    div(phi,K)      bounded Gauss upwind;
    div(U)          bounded Gauss upwind;
    div(phi,Ekp)    bounded Gauss upwind;
    div(phi,h)      Gauss linearUpwind default;
    div(phi,k)      bounded Gauss upwind;
    div(phi,K)      bounded Gauss upwind;
    div(phi,omega)  bounded Gauss upwind;
    div(phi,R)      bounded Gauss upwind;
    div(R)          Gauss linear;
    div(((rho*nuEff)*dev2(T(grad(U))))) Gauss linear;
}

laplacianSchemes
{
    default        Gauss linear limited 1.0;
    laplacian(DomegaEff,omega) Gauss linear uncorrected;
}

interpolationSchemes
{
    default         linear;
}

snGradSchemes
{
    // default         corrected;
    default         limited 1.0;
}

wallDist
{
    method          meshWave;
}

//fluxRequired
//{
//    default         no;
//    p_rgh;
//}

// ************************************************************************* //
