/*--------------------------------*- C++ -*----------------------------------*\
| =========                 |                                                 |
| \\      /  F ield         | OpenFOAM: The Open Source CFD Toolbox           |
|  \\    /   O peration     | Version:  dev                                   |
|   \\  /    A nd           | Web:      www.OpenFOAM.org                      |
|    \\/     M anipulation  |                                                 |
\*---------------------------------------------------------------------------*/
FoamFile
{
    version     2.0;
    format      ascii;
    class       dictionary;
    location    "system";
    object      fvOptions;
}
// * * * * * * * * * * * * * * * * * * * * * * * * * * * * * * * * * * * * * //
 
heatSource
{
    type            scalarSemiImplicitSource;
    //duration        1000.0;
    selectionMode   cellSet;
    cellSet         Helium;

    volumeMode      specific;

    injectionRateSuSp
    {
        T           (500 0);// (-512.8647947101659 0);
    }
}
 
 
// ************************************************************************* //
