/*--------------------------------*- C++ -*----------------------------------*\
| =========                 |                                                 |
| \\      /  F ield         | OpenFOAM: The Open Source CFD Toolbox           |
|  \\    /   O peration     | Version:  2.1.x                                 |
|   \\  /    A nd           | Web:      www.OpenFOAM.org                      |
|    \\/     M anipulation  |                                                 |
\*---------------------------------------------------------------------------*/
FoamFile
{
    version     2.0;
    format      ascii;
    class       dictionary;
    object      topoSetDict;
}

// * * * * * * * * * * * * * * * * * * * * * * * * * * * * * * * * * * * * * //

actions
(
    // topWall
    {
        name    topWall;
        type    cellSet;
        action  new;
        source  boxToCell;
        sourceInfo
        {
            box (-0.5 0.2 0 )(2.5 0.26 0.1);
        }
    }
    {
        name    topWall;
        type    cellZoneSet;
        action  new;
        source  setToCellZone;
        sourceInfo
        {
            set topWall;
        }
    }

    // Helium
    {
        name    Helium;
        type    cellSet;
        action  new;
        source  boxToCell;
        sourceInfo
        {
            box (-0.5 0 0 )(2.5 0.2 0.1);
        }
    }
    {
        name    Helium;
        type    cellZoneSet;
        action  new;
        source  setToCellZone;
        sourceInfo
        {
            set Helium;
        }
    }

);

// ************************************************************************* //
