/*--------------------------------*- C++ -*----------------------------------*\
| =========                 |                                                 |
| \\      /  F ield         | OpenFOAM: The Open Source CFD Toolbox           |
|  \\    /   O peration     | Version:  2.1.x                                 |
|   \\  /    A nd           | Web:      www.OpenFOAM.org                      |
|    \\/     M anipulation  |                                                 |
\*---------------------------------------------------------------------------*/
FoamFile
{
    version     2.0;
    format      ascii;
    class       dictionary;
    location    "system";
    object      controlDict;
}
// * * * * * * * * * * * * * * * * * * * * * * * * * * * * * * * * * * * * * //

application     chtMultiRegionSimpleFoam;

startFrom       latestTime;

startTime       latestTime;

stopAt          endTime;

endTime         6000;

deltaT          1;

writeControl    timeStep;

writeInterval   100;

purgeWrite      2;

writeFormat     ascii;

writePrecision  24;

writeCompression uncompressed;

timeFormat      general;

timePrecision   24;

runTimeModifiable true;

functions
{
//    rho
//  {
//    type     writeRegisteredObject;
//    functionObjectLibs   ("libfunctionObjects.so");
//    objectNames
//    (
//      rho
//    );
//  }
//    divU
//    {
        // Mandatory entries (unmodifiable)
//        type            div;
//        libs            (fieldFunctionObjects);
//
//        // Mandatory (inherited) entry (runtime modifiable)
//        region          Helium;
//        field           U;
//        writePrecision  24;
//        writeControl    timeStep;
//        writeInterval	 2500;
//    }
    wallHeatFlux
    {
        // Mandatory entries (unmodifiable)
        type            wallHeatFlux;
        libs            (fieldFunctionObjects);

        // Optional entries (runtime modifiable)
        patches     (Helium_to_topWall); // (wall1 "(wall2|wall3)");
        qr          qr;

        // Optional (inherited) entries
        writePrecision  24;
        writeToFile     true;
        region          Helium;
        writeControl    timeStep;
        writeInterval	 100;
    }
    wallShearStress
    {
        // Mandatory entries (unmodifiable)
        type            wallShearStress;
        libs            (fieldFunctionObjects);

        // Optional entries (runtime modifiable)
        patches     (Helium_to_topWall rightLet leftLet); // (wall1 "(wall2|wall3)");

        // Optional (inherited) entries
        writePrecision  24;
        writeToFile     true;
        region          Helium;
        writeControl    timeStep;
        writeInterval	 100;
    }
}


// ************************************************************************* //
