/*--------------------------------*- C++ -*----------------------------------*\
| =========                 |                                                 |
| \\      /  F ield         | OpenFOAM: The Open Source CFD Toolbox           |
|  \\    /   O peration     | Version:  2.1.x                                 |
|   \\  /    A nd           | Web:      www.OpenFOAM.org                      |
|    \\/     M anipulation  |                                                 |
\*---------------------------------------------------------------------------*/
FoamFile
{
    version     2.0;
    format      ascii;
    class       dictionary;
    object      topoSetDict;
}

// * * * * * * * * * * * * * * * * * * * * * * * * * * * * * * * * * * * * * //

actions
(
    // topWall
    {
        name    topWall;
        type    cellSet;
        action  new;
        source  cylinderToCell;
        p1          (-0.6 0 0);
    	p2          (2.6 0 0);
    	radius      0.26;
    	innerRadius 0.1985;
    }
    {
        name    topWall;
        type    cellZoneSet;
        action  new;
        source  setToCellZone;
        sourceInfo
        {
            set topWall;
        }
    }
    // Helium
    {
    	name        Helium;
    	type        cellSet;
    	action      new;
    	source      cylinderToCell;
    	p1          (-0.6 0 0);
    	p2          (2.6 0 0);
    	radius      0.1985;
    }
    {
        name    Helium;
        type    cellZoneSet;
        action  new;
        source  setToCellZone;
        sourceInfo
        {
            set Helium;
        }
    }

);

// ************************************************************************* //
